goiania_leste_dss/TR2/CTMT_5001998.dss
! ==============================================================================
! ALIMENTADOR CTMT_5001998 - GOIANIA LESTE-19
! Subestacao: Trafo TR2 (GOL-S-TRF-TR2) | Barra MT: 4629 -> PAC_INI: 84804555001998
! ==============================================================================

! 1. Disjuntor de Saida MT do Alimentador
new line.DJ_5001998 phases=3 bus1=4629 bus2=84804555001998 switch=y r1=1e-4 x1=1e-4 length=0.001 units=km

! 2. Linhas de Media Tensao (MT)
new line.52883187 phases=3 bus1=80501535001998.1.2.3 bus2=96895525001998.1.2.3 r1=0.236 x1=0.27 length=0.011796 units=km normamps=456.0
new line.52883188 phases=3 bus1=80501545001998.1.2.3 bus2=80501535001998.1.2.3 r1=0.236 x1=0.27 length=0.021909 units=km normamps=456.0
new line.52883189 phases=3 bus1=80501545001998.1.2.3 bus2=80501455001998.1.2.3 r1=0.236 x1=0.27 length=0.035786 units=km normamps=456.0
new line.52883190 phases=3 bus1=80501475001998.1.2.3 bus2=80501485001998.1.2.3 r1=0.236 x1=0.27 length=0.031928 units=km normamps=456.0
new line.52883191 phases=3 bus1=80501485001998.1.2.3 bus2=80501495001998.1.2.3 r1=0.236 x1=0.27 length=0.032782 units=km normamps=456.0
new line.52883192 phases=3 bus1=80501495001998.1.2.3 bus2=80501505001998.1.2.3 r1=0.236 x1=0.27 length=0.025582 units=km normamps=456.0
new line.52883193 phases=3 bus1=80501505001998.1.2.3 bus2=86710115001998.1.2.3 r1=0.236 x1=0.27 length=0.01796 units=km normamps=456.0
new line.52883194 phases=3 bus1=80501515001998.1.2.3 bus2=80501315001998.1.2.3 r1=0.236 x1=0.27 length=0.037845 units=km normamps=456.0
new line.52883195 phases=3 bus1=80501455001998.1.2.3 bus2=80501465001998.1.2.3 r1=0.236 x1=0.27 length=0.032278 units=km normamps=456.0
new line.52883196 phases=3 bus1=80501465001998.1.2.3 bus2=80501475001998.1.2.3 r1=0.236 x1=0.27 length=0.029888 units=km normamps=456.0
new line.52883197 phases=3 bus1=80501315001998.1.2.3 bus2=80501265001998.1.2.3 r1=0.236 x1=0.27 length=0.031696 units=km normamps=456.0
new line.52883206 phases=3 bus1=80501135001998B.1.2.3 bus2=80501175001998.1.2.3 r1=0.236 x1=0.27 length=0.017412 units=km normamps=456.0
new line.52883207 phases=3 bus1=80501225001998.1.2.3 bus2=80501265001998.1.2.3 r1=0.236 x1=0.27 length=0.038854 units=km normamps=456.0
new line.52883208 phases=3 bus1=80501185001998.1.2.3 bus2=80501175001998.1.2.3 r1=0.236 x1=0.27 length=0.035786 units=km normamps=456.0
new line.52883209 phases=3 bus1=80501225001998.1.2.3 bus2=80501215001998.1.2.3 r1=0.236 x1=0.27 length=0.026604 units=km normamps=456.0
new line.52883210 phases=3 bus1=80501215001998.1.2.3 bus2=80501205001998.1.2.3 r1=0.236 x1=0.27 length=0.039929 units=km normamps=456.0
new line.52883211 phases=3 bus1=80501205001998.1.2.3 bus2=80501195001998.1.2.3 r1=0.236 x1=0.27 length=0.025581 units=km normamps=456.0
new line.52883212 phases=3 bus1=80501195001998.1.2.3 bus2=80501185001998.1.2.3 r1=0.236 x1=0.27 length=0.031763 units=km normamps=456.0
new line.52883213 phases=3 bus1=80508535001998.1.2.3 bus2=80508555001998.1.2.3 r1=0.975 x1=0.47 length=0.03262 units=km normamps=152.0
new line.52883214 phases=3 bus1=80508555001998.1.2.3 bus2=80508565001998.1.2.3 r1=0.975 x1=0.47 length=0.043133 units=km normamps=152.0
new line.52883215 phases=3 bus1=80508565001998.1.2.3 bus2=80508575001998.1.2.3 r1=0.975 x1=0.47 length=0.038655 units=km normamps=152.0
new line.52883216 phases=3 bus1=80508575001998.1.2.3 bus2=80508585001998.1.2.3 r1=0.975 x1=0.47 length=0.029238 units=km normamps=152.0
new line.52883217 phases=3 bus1=80508585001998.1.2.3 bus2=80508595001998.1.2.3 r1=1.551 x1=0.49 length=0.019643 units=km normamps=114.0
new line.52883218 phases=3 bus1=80509075001998.1.2.3 bus2=80509085001998.1.2.3 r1=0.975 x1=0.47 length=0.036646 units=km normamps=152.0
new line.52883233 phases=3 bus1=80508335001998.1.2.3 bus2=80508345001998.1.2.3 r1=0.188 x1=0.26 length=0.025689 units=km normamps=525.0
new line.52883234 phases=3 bus1=80508345001998.1.2.3 bus2=80508355001998.1.2.3 r1=0.188 x1=0.26 length=0.012791 units=km normamps=525.0
new line.52883235 phases=3 bus1=80508355001998.1.2.3 bus2=80508365001998.1.2.3 r1=0.188 x1=0.26 length=0.013144 units=km normamps=525.0
new line.52883236 phases=3 bus1=80508365001998.1.2.3 bus2=80508385001998.1.2.3 r1=0.188 x1=0.26 length=0.048334 units=km normamps=525.0
new line.52883237 phases=3 bus1=80508385001998.1.2.3 bus2=80508395001998.1.2.3 r1=0.188 x1=0.26 length=0.037369 units=km normamps=525.0
new line.52883238 phases=3 bus1=80508395001998.1.2.3 bus2=80508405001998.1.2.3 r1=0.188 x1=0.26 length=0.037209 units=km normamps=525.0
new line.52883239 phases=3 bus1=80508405001998.1.2.3 bus2=80508415001998.1.2.3 r1=0.188 x1=0.26 length=0.043204 units=km normamps=525.0
new line.52883240 phases=3 bus1=80508415001998.1.2.3 bus2=80508425001998.1.2.3 r1=0.188 x1=0.26 length=0.050267 units=km normamps=525.0
new line.52883241 phases=3 bus1=80508425001998.1.2.3 bus2=80508225001998.1.2.3 r1=0.188 x1=0.26 length=0.043808 units=km normamps=525.0
new line.52883242 phases=3 bus1=80520245001998.1.2.3 bus2=80508235001998.1.2.3 r1=0.188 x1=0.26 length=0.019746 units=km normamps=525.0
new line.52883243 phases=3 bus1=80508375001998.1.2.3 bus2=80508365001998.1.2.3 r1=0.188 x1=0.26 length=0.002536 units=km normamps=525.0
new line.52883257 phases=3 bus1=80518745001998.1.2.3 bus2=80517095001998.1.2.3 r1=0.975 x1=0.47 length=0.041006 units=km normamps=152.0
new line.52883258 phases=3 bus1=80510565001998.1.2.3 bus2=80510555001998.1.2.3 r1=0.975 x1=0.47 length=0.04141 units=km normamps=152.0
new line.52883259 phases=3 bus1=80510575001998.1.2.3 bus2=80510605001998.1.2.3 r1=0.975 x1=0.47 length=0.018206 units=km normamps=152.0
new line.52883260 phases=3 bus1=80510605001998.1.2.3 bus2=80510565001998.1.2.3 r1=0.975 x1=0.47 length=0.025556 units=km normamps=152.0
new line.52883261 phases=3 bus1=80510595001998.1.2.3 bus2=80510605001998.1.2.3 r1=0.975 x1=0.47 length=0.025642 units=km normamps=152.0
new line.52883262 phases=3 bus1=80510605001998.1.2.3 bus2=80510585001998.1.2.3 r1=0.975 x1=0.47 length=0.019402 units=km normamps=152.0
new line.52883263 phases=3 bus1=80510585001998.1.2.3 bus2=80510615001998.1.2.3 r1=0.975 x1=0.47 length=0.031575 units=km normamps=152.0
new line.52883264 phases=3 bus1=80510615001998.1.2.3 bus2=80509715001998.1.2.3 r1=0.975 x1=0.47 length=0.040864 units=km normamps=152.0
new line.52883265 phases=3 bus1=80509715001998.1.2.3 bus2=80509725001998.1.2.3 r1=0.975 x1=0.47 length=0.034888 units=km normamps=152.0
new line.52883298 phases=3 bus1=80501145001998.1.2.3 bus2=80501125001998.1.2.3 r1=0.188 x1=0.26 length=0.043053 units=km normamps=525.0
new line.52883299 phases=3 bus1=80501135001998.1.2.3 bus2=80501145001998.1.2.3 r1=0.188 x1=0.26 length=0.031713 units=km normamps=525.0
new line.52883300 phases=3 bus1=80501165001998.1.2.3 bus2=80501155001998.1.2.3 r1=0.188 x1=0.26 length=0.047619 units=km normamps=525.0
new line.52883301 phases=3 bus1=80501155001998.1.2.3 bus2=80501115001998.1.2.3 r1=0.188 x1=0.26 length=0.025562 units=km normamps=525.0
new line.52883302 phases=3 bus1=80508595001998.1.2.3 bus2=80508735001998.1.2.3 r1=0.975 x1=0.47 length=0.019021 units=km normamps=152.0
new line.52883303 phases=3 bus1=80508975001998.1.2.3 bus2=80508965001998.1.2.3 r1=0.975 x1=0.47 length=0.034372 units=km normamps=152.0
new line.52883304 phases=3 bus1=80508985001998.1.2.3 bus2=80508975001998.1.2.3 r1=0.975 x1=0.47 length=0.034365 units=km normamps=152.0
new line.52883305 phases=3 bus1=80508985001998.1.2.3 bus2=80509025001998.1.2.3 r1=0.975 x1=0.47 length=0.02619 units=km normamps=152.0
new line.52883306 phases=3 bus1=80508995001998.1.2.3 bus2=80509025001998.1.2.3 r1=0.975 x1=0.47 length=0.013757 units=km normamps=152.0
new line.52883307 phases=3 bus1=80509015001998.1.2.3 bus2=80509025001998.1.2.3 r1=0.975 x1=0.47 length=0.023533 units=km normamps=152.0
new line.52883308 phases=3 bus1=80509005001998.1.2.3 bus2=80509025001998.1.2.3 r1=0.975 x1=0.47 length=0.017593 units=km normamps=152.0
new line.52883309 phases=3 bus1=80509035001998.1.2.3 bus2=80508995001998.1.2.3 r1=0.975 x1=0.47 length=0.036604 units=km normamps=152.0
new line.52883310 phases=3 bus1=80509045001998.1.2.3 bus2=80509035001998.1.2.3 r1=0.975 x1=0.47 length=0.038288 units=km normamps=152.0
new line.52883311 phases=3 bus1=80509005001998.1.2.3 bus2=80509055001998.1.2.3 r1=0.975 x1=0.47 length=0.032626 units=km normamps=152.0
new line.52883312 phases=3 bus1=80509055001998.1.2.3 bus2=80509065001998.1.2.3 r1=0.975 x1=0.47 length=0.037715 units=km normamps=152.0
new line.52883313 phases=3 bus1=80509065001998.1.2.3 bus2=80509075001998.1.2.3 r1=0.975 x1=0.47 length=0.036022 units=km normamps=152.0
new line.52883314 phases=3 bus1=80511375001998.1.2.3 bus2=80511365001998.1.2.3 r1=0.236 x1=0.27 length=0.036127 units=km normamps=456.0
new line.52883315 phases=3 bus1=80511385001998.1.2.3 bus2=80511375001998.1.2.3 r1=0.236 x1=0.27 length=0.033962 units=km normamps=456.0
new line.52883316 phases=3 bus1=80511385001998.1.2.3 bus2=94075455001998.1.2.3 r1=0.236 x1=0.27 length=0.023922 units=km normamps=456.0
new line.52883317 phases=3 bus1=80511405001998.1.2.3 bus2=80511385001998.1.2.3 r1=0.236 x1=0.27 length=0.047253 units=km normamps=456.0
new line.52883350 phases=3 bus1=80509725001998.1.2.3 bus2=80509735001998.1.2.3 r1=0.975 x1=0.47 length=0.033182 units=km normamps=152.0
new line.52883351 phases=3 bus1=80509735001998.1.2.3 bus2=80509015001998.1.2.3 r1=0.975 x1=0.47 length=0.0436 units=km normamps=152.0
new line.52883352 phases=3 bus1=80509045001998.1.2.3 bus2=80510495001998.1.2.3 r1=0.975 x1=0.47 length=0.029724 units=km normamps=152.0
new line.52883353 phases=3 bus1=80510495001998.1.2.3 bus2=80509705001998.1.2.3 r1=0.975 x1=0.47 length=0.041213 units=km normamps=152.0
new line.52883354 phases=3 bus1=80509825001998.1.2.3 bus2=80509835001998.1.2.3 r1=0.975 x1=0.47 length=0.0436 units=km normamps=152.0
new line.52883355 phases=3 bus1=80509825001998.1.2.3 bus2=80509855001998.1.2.3 r1=0.975 x1=0.47 length=0.036262 units=km normamps=152.0
new line.52883356 phases=3 bus1=80509855001998.1.2.3 bus2=80510575001998.1.2.3 r1=0.975 x1=0.47 length=0.044388 units=km normamps=152.0
new line.52883357 phases=3 bus1=80509865001998.1.2.3 bus2=80509835001998.1.2.3 r1=0.975 x1=0.47 length=0.035425 units=km normamps=152.0
new line.52883358 phases=3 bus1=80510705001998.1.2.3 bus2=80509705001998.1.2.3 r1=0.975 x1=0.47 length=0.037013 units=km normamps=152.0
new line.52883359 phases=3 bus1=80510555001998.1.2.3 bus2=80509395001998.1.2.3 r1=1.551 x1=0.49 length=0.03675 units=km normamps=114.0
new line.52883360 phases=3 bus1=80510285001998.1.2.3 bus2=80510295001998.1.2.3 r1=0.975 x1=0.47 length=0.020451 units=km normamps=152.0
new line.52883361 phases=3 bus1=80510295001998.1.2.3 bus2=80510305001998.1.2.3 r1=0.975 x1=0.47 length=0.034591 units=km normamps=152.0
new line.52883362 phases=3 bus1=80510305001998.1.2.3 bus2=80510135001998.1.2.3 r1=0.975 x1=0.47 length=0.038178 units=km normamps=152.0
new line.52883363 phases=3 bus1=80510315001998.1.2.3 bus2=80510325001998.1.2.3 r1=0.975 x1=0.47 length=0.016646 units=km normamps=152.0
new line.52883364 phases=3 bus1=80510335001998.1.2.3 bus2=80510325001998.1.2.3 r1=0.975 x1=0.47 length=0.028671 units=km normamps=152.0
new line.52883365 phases=3 bus1=80510135001998.1.2.3 bus2=80510315001998.1.2.3 r1=0.975 x1=0.47 length=0.037515 units=km normamps=152.0
new line.52883366 phases=3 bus1=80510365001998.1.2.3 bus2=80510315001998.1.2.3 r1=0.975 x1=0.47 length=0.037599 units=km normamps=152.0
new line.52883367 phases=3 bus1=80510405001998.1.2.3 bus2=80510365001998.1.2.3 r1=0.975 x1=0.47 length=0.037534 units=km normamps=152.0
new line.52883368 phases=3 bus1=80510405001998.1.2.3 bus2=80510415001998.1.2.3 r1=0.975 x1=0.47 length=0.032092 units=km normamps=152.0
new line.52883369 phases=3 bus1=80510415001998.1.2.3 bus2=80510425001998.1.2.3 r1=0.975 x1=0.47 length=0.032617 units=km normamps=152.0
new line.52883370 phases=3 bus1=80508735001998.1.2.3 bus2=80510425001998.1.2.3 r1=0.975 x1=0.47 length=0.023541 units=km normamps=152.0
new line.52883372 phases=3 bus1=80511355001998.1.2.3 bus2=80511345001998.1.2.3 r1=0.236 x1=0.27 length=0.038508 units=km normamps=456.0
new line.52883373 phases=3 bus1=80511365001998.1.2.3 bus2=80511355001998.1.2.3 r1=0.236 x1=0.27 length=0.038886 units=km normamps=456.0
new line.52883487 phases=3 bus1=80501545001998.1.2.3 bus2=80512045001998.1.2.3 r1=0.236 x1=0.27 length=0.052823 units=km normamps=456.0
new line.52883488 phases=3 bus1=80512045001998.1.2.3 bus2=80512055001998.1.2.3 r1=0.236 x1=0.27 length=0.039771 units=km normamps=456.0
new line.52883546 phases=3 bus1=80512935001998.1.2.3 bus2=80512925001998.1.2.3 r1=0.236 x1=0.27 length=0.04179 units=km normamps=456.0
new line.52883547 phases=3 bus1=80512935001998B.1.2.3 bus2=80512945001998.1.2.3 r1=0.236 x1=0.27 length=0.019427 units=km normamps=456.0
new line.52883548 phases=3 bus1=80512945001998.1.2.3 bus2=80512955001998B.1.2.3 r1=0.236 x1=0.27 length=0.014992 units=km normamps=456.0
new line.52883550 phases=3 bus1=80512985001998.1.2.3 bus2=80512995001998.1.2.3 r1=0.236 x1=0.27 length=0.072857 units=km normamps=456.0
new line.52883553 phases=3 bus1=80513075001998.1.2.3 bus2=80513095001998.1.2.3 r1=0.236 x1=0.27 length=0.096768 units=km normamps=456.0
new line.52883554 phases=3 bus1=80513095001998.1.2.3 bus2=80513085001998.1.2.3 r1=0.236 x1=0.27 length=0.021928 units=km normamps=456.0
new line.52883557 phases=3 bus1=80513115001998.1.2.3 bus2=80513125001998.1.2.3 r1=0.236 x1=0.27 length=0.073737 units=km normamps=456.0
new line.52883558 phases=3 bus1=80513125001998.1.2.3 bus2=80513135001998.1.2.3 r1=0.236 x1=0.27 length=0.08808 units=km normamps=456.0
new line.52883559 phases=3 bus1=80513135001998.1.2.3 bus2=80513145001998.1.2.3 r1=0.236 x1=0.27 length=0.093458 units=km normamps=456.0
new line.52883560 phases=3 bus1=80513145001998.1.2.3 bus2=80513155001998.1.2.3 r1=0.236 x1=0.27 length=0.071944 units=km normamps=456.0
new line.52883561 phases=3 bus1=80513185001998B.1.2.3 bus2=80513195001998.1.2.3 r1=0.236 x1=0.27 length=0.043272 units=km normamps=456.0
new line.52883562 phases=3 bus1=80513195001998.1.2.3 bus2=80513205001998.1.2.3 r1=0.236 x1=0.27 length=0.029395 units=km normamps=456.0
new line.52883563 phases=3 bus1=80513205001998.1.2.3 bus2=80514645001998.1.2.3 r1=0.236 x1=0.27 length=0.02334 units=km normamps=456.0
new line.52883564 phases=3 bus1=80514645001998.1.2.3 bus2=80514655001998.1.2.3 r1=0.236 x1=0.27 length=0.02389 units=km normamps=456.0
new line.52883565 phases=3 bus1=80514655001998.1.2.3 bus2=80514665001998.1.2.3 r1=0.236 x1=0.27 length=0.033806 units=km normamps=456.0
new line.52883566 phases=3 bus1=80514675001998.1.2.3 bus2=80514665001998.1.2.3 r1=0.236 x1=0.27 length=0.038382 units=km normamps=456.0
new line.52883567 phases=3 bus1=80513165001998.1.2.3 bus2=80513185001998.1.2.3 r1=0.236 x1=0.27 length=0.04667 units=km normamps=456.0
new line.52883568 phases=3 bus1=80513155001998.1.2.3 bus2=80513165001998.1.2.3 r1=0.236 x1=0.27 length=0.07314 units=km normamps=456.0
new line.52883569 phases=3 bus1=80513045001998.1.2.3 bus2=80513075001998.1.2.3 r1=0.236 x1=0.27 length=0.071108 units=km normamps=456.0
new line.52883570 phases=3 bus1=80513035001998.1.2.3 bus2=80513045001998.1.2.3 r1=0.236 x1=0.27 length=0.076712 units=km normamps=456.0
new line.52883571 phases=3 bus1=80513025001998.1.2.3 bus2=80513035001998.1.2.3 r1=0.236 x1=0.27 length=0.071046 units=km normamps=456.0
new line.52883572 phases=3 bus1=80513005001998.1.2.3 bus2=80513025001998.1.2.3 r1=0.236 x1=0.27 length=0.080784 units=km normamps=456.0
new line.52883573 phases=3 bus1=80512995001998.1.2.3 bus2=80513005001998.1.2.3 r1=0.236 x1=0.27 length=0.059677 units=km normamps=456.0
new line.52883574 phases=3 bus1=80512965001998.1.2.3 bus2=80512985001998.1.2.3 r1=0.236 x1=0.27 length=0.123344 units=km normamps=456.0
new line.52883575 phases=3 bus1=80514695001998.1.2.3 bus2=80514685001998.1.2.3 r1=0.236 x1=0.27 length=0.050976 units=km normamps=456.0
new line.52883576 phases=3 bus1=80514685001998.1.2.3 bus2=80512945001998.1.2.3 r1=0.236 x1=0.27 length=0.167016 units=km normamps=456.0
new line.52883577 phases=3 bus1=80514705001998.1.2.3 bus2=80514695001998.1.2.3 r1=0.236 x1=0.27 length=0.047441 units=km normamps=456.0
new line.52883578 phases=3 bus1=80514715001998.1.2.3 bus2=80514705001998.1.2.3 r1=0.236 x1=0.27 length=0.065819 units=km normamps=456.0
new line.52883579 phases=3 bus1=80514725001998.1.2.3 bus2=80514715001998.1.2.3 r1=0.236 x1=0.27 length=0.070234 units=km normamps=456.0
new line.52883580 phases=3 bus1=80514735001998.1.2.3 bus2=80514725001998.1.2.3 r1=0.236 x1=0.27 length=0.061885 units=km normamps=456.0
new line.52883582 phases=3 bus1=80514745001998.1.2.3 bus2=80514735001998.1.2.3 r1=0.236 x1=0.27 length=0.061437 units=km normamps=456.0
new line.52883583 phases=3 bus1=80514765001998.1.2.3 bus2=80514745001998.1.2.3 r1=0.236 x1=0.27 length=0.060298 units=km normamps=456.0
new line.52883585 phases=3 bus1=80515565001998.1.2.3 bus2=80514765001998.1.2.3 r1=0.236 x1=0.27 length=0.0654 units=km normamps=456.0
new line.52883586 phases=3 bus1=80515585001998.1.2.3 bus2=80515565001998.1.2.3 r1=0.236 x1=0.27 length=0.075246 units=km normamps=456.0
new line.52883587 phases=3 bus1=80515595001998.1.2.3 bus2=80515585001998.1.2.3 r1=0.236 x1=0.27 length=0.076698 units=km normamps=456.0
new line.52883588 phases=3 bus1=80515605001998.1.2.3 bus2=80515595001998.1.2.3 r1=0.236 x1=0.27 length=0.080411 units=km normamps=456.0
new line.52883590 phases=3 bus1=80514825001998.1.2.3 bus2=80514835001998.1.2.3 r1=0.236 x1=0.27 length=0.040902 units=km normamps=456.0
new line.52883591 phases=3 bus1=80514845001998.1.2.3 bus2=80514855001998.1.2.3 r1=0.236 x1=0.27 length=0.031492 units=km normamps=456.0
new line.52883592 phases=3 bus1=80514835001998.1.2.3 bus2=80514845001998.1.2.3 r1=0.236 x1=0.27 length=0.033292 units=km normamps=456.0
new line.52883593 phases=3 bus1=80514855001998.1.2.3 bus2=80514865001998.1.2.3 r1=0.236 x1=0.27 length=0.030351 units=km normamps=456.0
new line.52883594 phases=3 bus1=80514865001998.1.2.3 bus2=80514875001998.1.2.3 r1=0.236 x1=0.27 length=0.034374 units=km normamps=456.0
new line.52883595 phases=3 bus1=80514875001998.1.2.3 bus2=94547065001998.1.2.3 r1=0.236 x1=0.27 length=0.016861 units=km normamps=456.0
new line.52883596 phases=3 bus1=80514895001998.1.2.3 bus2=80514885001998.1.2.3 r1=0.236 x1=0.27 length=0.046774 units=km normamps=456.0
new line.52883597 phases=3 bus1=80514895001998.1.2.3 bus2=80515685001998.1.2.3 r1=0.236 x1=0.27 length=0.041068 units=km normamps=456.0
new line.52883598 phases=3 bus1=80515685001998.1.2.3 bus2=80515695001998.1.2.3 r1=0.236 x1=0.27 length=0.049801 units=km normamps=456.0
new line.52883599 phases=3 bus1=80515695001998.1.2.3 bus2=80515705001998.1.2.3 r1=0.236 x1=0.27 length=0.044804 units=km normamps=456.0
new line.52883600 phases=3 bus1=80515705001998.1.2.3 bus2=80515715001998.1.2.3 r1=0.236 x1=0.27 length=0.046136 units=km normamps=456.0
new line.52883601 phases=3 bus1=80515725001998.1.2.3 bus2=80515735001998.1.2.3 r1=0.236 x1=0.27 length=0.029964 units=km normamps=456.0
new line.52883602 phases=3 bus1=80512925001998.1.2.3 bus2=80515625001998.1.2.3 r1=0.236 x1=0.27 length=0.04554 units=km normamps=456.0
new line.52883603 phases=3 bus1=80515625001998.1.2.3 bus2=80515635001998.1.2.3 r1=0.236 x1=0.27 length=0.03751 units=km normamps=456.0
new line.52883604 phases=3 bus1=80515635001998.1.2.3 bus2=80515645001998.1.2.3 r1=0.236 x1=0.27 length=0.039429 units=km normamps=456.0
new line.52883605 phases=3 bus1=80512055001998.1.2.3 bus2=80515655001998.1.2.3 r1=0.236 x1=0.27 length=0.034943 units=km normamps=456.0
new line.52883606 phases=3 bus1=80515655001998.1.2.3 bus2=80515665001998.1.2.3 r1=0.236 x1=0.27 length=0.033989 units=km normamps=456.0
new line.52883607 phases=3 bus1=80515665001998.1.2.3 bus2=80515675001998.1.2.3 r1=0.236 x1=0.27 length=0.032333 units=km normamps=456.0
new line.52883608 phases=3 bus1=80514775001998.1.2.3 bus2=80514785001998.1.2.3 r1=0.236 x1=0.27 length=0.039869 units=km normamps=456.0
new line.52883609 phases=3 bus1=80515675001998.1.2.3 bus2=80514775001998.1.2.3 r1=0.236 x1=0.27 length=0.040899 units=km normamps=456.0
new line.52883610 phases=3 bus1=80514785001998.1.2.3 bus2=80514795001998.1.2.3 r1=0.236 x1=0.27 length=0.039893 units=km normamps=456.0
new line.52883611 phases=3 bus1=80514795001998.1.2.3 bus2=80514805001998.1.2.3 r1=0.236 x1=0.27 length=0.040953 units=km normamps=456.0
new line.52883612 phases=3 bus1=80514805001998.1.2.3 bus2=80514815001998.1.2.3 r1=0.236 x1=0.27 length=0.041927 units=km normamps=456.0
new line.52883613 phases=3 bus1=80514815001998.1.2.3 bus2=80514825001998.1.2.3 r1=0.236 x1=0.27 length=0.039879 units=km normamps=456.0
new line.52883614 phases=3 bus1=80515715001998.1.2.3 bus2=80515725001998.1.2.3 r1=0.236 x1=0.27 length=0.027521 units=km normamps=456.0
new line.52883615 phases=3 bus1=80515735001998.1.2.3 bus2=80515745001998.1.2.3 r1=0.236 x1=0.27 length=0.030833 units=km normamps=456.0
new line.52883616 phases=3 bus1=80515745001998.1.2.3 bus2=80515755001998.1.2.3 r1=0.236 x1=0.27 length=0.007148 units=km normamps=456.0
new line.52883617 phases=3 bus1=80515755001998B.1.2.3 bus2=80515765001998.1.2.3 r1=0.613 x1=0.45 length=0.033699 units=km normamps=203.0
new line.52883618 phases=3 bus1=80515765001998.1.2.3 bus2=80515775001998.1.2.3 r1=0.613 x1=0.45 length=0.039879 units=km normamps=203.0
new line.52883619 phases=3 bus1=80515775001998.1.2.3 bus2=80515785001998.1.2.3 r1=0.613 x1=0.45 length=0.046915 units=km normamps=203.0
new line.52883620 phases=3 bus1=80515785001998.1.2.3 bus2=80515795001998.1.2.3 r1=0.613 x1=0.45 length=0.037505 units=km normamps=203.0
new line.52883621 phases=3 bus1=80515805001998.1.2.3 bus2=80515795001998.1.2.3 r1=0.613 x1=0.45 length=0.010265 units=km normamps=203.0
new line.52883622 phases=3 bus1=80515745001998.1.2.3 bus2=80514905001998.1.2.3 r1=0.236 x1=0.27 length=0.033479 units=km normamps=456.0
new line.52883623 phases=3 bus1=80514905001998.1.2.3 bus2=80514915001998.1.2.3 r1=0.236 x1=0.27 length=0.046061 units=km normamps=456.0
new line.52883624 phases=3 bus1=80514915001998.1.2.3 bus2=80514925001998.1.2.3 r1=0.236 x1=0.27 length=0.045082 units=km normamps=456.0
new line.52883625 phases=3 bus1=80514925001998.1.2.3 bus2=80514935001998.1.2.3 r1=0.236 x1=0.27 length=0.04365 units=km normamps=456.0
new line.52883626 phases=3 bus1=80514935001998.1.2.3 bus2=90743415001998.1.2.3 r1=0.236 x1=0.27 length=0.035982 units=km normamps=456.0
new line.52883628 phases=3 bus1=80514955001998.1.2.3 bus2=80514965001998.1.2.3 r1=0.236 x1=0.27 length=0.041165 units=km normamps=456.0
new line.52883629 phases=3 bus1=80514965001998.1.2.3 bus2=80514975001998.1.2.3 r1=0.236 x1=0.27 length=0.04057 units=km normamps=456.0
new line.52883630 phases=3 bus1=80514975001998.1.2.3 bus2=80514985001998.1.2.3 r1=0.236 x1=0.27 length=0.046662 units=km normamps=456.0
new line.52883631 phases=3 bus1=80514985001998.1.2.3 bus2=80514995001998.1.2.3 r1=0.236 x1=0.27 length=0.040768 units=km normamps=456.0
new line.52883632 phases=3 bus1=80514995001998.1.2.3 bus2=80515005001998.1.2.3 r1=0.236 x1=0.27 length=0.043153 units=km normamps=456.0
new line.52883633 phases=3 bus1=80515005001998.1.2.3 bus2=80515015001998.1.2.3 r1=0.236 x1=0.27 length=0.040648 units=km normamps=456.0
new line.52883634 phases=3 bus1=80515015001998.1.2.3 bus2=80515025001998.1.2.3 r1=0.236 x1=0.27 length=0.046215 units=km normamps=456.0
new line.52883635 phases=3 bus1=80515025001998.1.2.3 bus2=80515035001998.1.2.3 r1=0.236 x1=0.27 length=0.045302 units=km normamps=456.0
new line.52883636 phases=3 bus1=80515035001998.1.2.3 bus2=80515045001998.1.2.3 r1=0.236 x1=0.27 length=0.035651 units=km normamps=456.0
new line.52883637 phases=3 bus1=80515045001998.1.2.3 bus2=80515055001998.1.2.3 r1=0.236 x1=0.27 length=0.024108 units=km normamps=456.0
new line.52883638 phases=3 bus1=80515055001998.1.2.3 bus2=80515065001998.1.2.3 r1=0.236 x1=0.27 length=0.030739 units=km normamps=456.0
new line.52883639 phases=3 bus1=80515065001998.1.2.3 bus2=80515075001998.1.2.3 r1=0.236 x1=0.27 length=0.037539 units=km normamps=456.0
new line.52883640 phases=3 bus1=80515075001998.1.2.3 bus2=80515085001998.1.2.3 r1=0.236 x1=0.27 length=0.038967 units=km normamps=456.0
new line.52883641 phases=3 bus1=80515085001998.1.2.3 bus2=80515095001998.1.2.3 r1=0.236 x1=0.27 length=0.037576 units=km normamps=456.0
new line.52883642 phases=3 bus1=80515095001998.1.2.3 bus2=80515105001998.1.2.3 r1=0.236 x1=0.27 length=0.035968 units=km normamps=456.0
new line.52883643 phases=3 bus1=80515105001998.1.2.3 bus2=80515115001998.1.2.3 r1=0.236 x1=0.27 length=0.037785 units=km normamps=456.0
new line.52883644 phases=3 bus1=80515135001998.1.2.3 bus2=80515145001998.1.2.3 r1=0.236 x1=0.27 length=0.006988 units=km normamps=456.0
new line.52883645 phases=3 bus1=80515115001998.1.2.3 bus2=80515135001998.1.2.3 r1=0.236 x1=0.27 length=0.03451 units=km normamps=456.0
new line.52883646 phases=3 bus1=80515145001998.1.2.3 bus2=80515155001998.1.2.3 r1=0.236 x1=0.27 length=0.032951 units=km normamps=456.0
new line.52883647 phases=3 bus1=80515155001998.1.2.3 bus2=80515165001998.1.2.3 r1=0.236 x1=0.27 length=0.036395 units=km normamps=456.0
new line.52883648 phases=3 bus1=80515165001998.1.2.3 bus2=80515175001998.1.2.3 r1=0.236 x1=0.27 length=0.008193 units=km normamps=456.0
new line.52883649 phases=3 bus1=80515175001998.1.2.3 bus2=80515185001998.1.2.3 r1=0.236 x1=0.27 length=0.037914 units=km normamps=456.0
new line.52883650 phases=3 bus1=80515185001998.1.2.3 bus2=80515195001998.1.2.3 r1=0.236 x1=0.27 length=0.043355 units=km normamps=456.0
new line.52883651 phases=3 bus1=80515195001998.1.2.3 bus2=80515205001998.1.2.3 r1=0.236 x1=0.27 length=0.03892 units=km normamps=456.0
new line.52883652 phases=3 bus1=80515205001998.1.2.3 bus2=80515215001998.1.2.3 r1=0.236 x1=0.27 length=0.036571 units=km normamps=456.0
new line.52883653 phases=3 bus1=80515215001998.1.2.3 bus2=80515225001998.1.2.3 r1=0.236 x1=0.27 length=0.034133 units=km normamps=456.0
new line.52883654 phases=3 bus1=80515225001998.1.2.3 bus2=80515645001998.1.2.3 r1=0.236 x1=0.27 length=0.039495 units=km normamps=456.0
new line.52883655 phases=3 bus1=80512955001998.1.2.3 bus2=92723765001998.1.2.3 r1=0.236 x1=0.27 length=0.008329 units=km normamps=456.0
new line.52883656 phases=3 bus1=80513095001998.1.2.3 bus2=80515235001998.1.2.3 r1=0.236 x1=0.27 length=0.092483 units=km normamps=456.0
new line.52883657 phases=3 bus1=80515235001998.1.2.3 bus2=80515245001998.1.2.3 r1=0.236 x1=0.27 length=0.072827 units=km normamps=456.0
new line.52883658 phases=3 bus1=80515245001998.1.2.3 bus2=80515255001998.1.2.3 r1=0.236 x1=0.27 length=0.066246 units=km normamps=456.0
new line.52883659 phases=3 bus1=80515255001998.1.2.3 bus2=80515265001998.1.2.3 r1=0.236 x1=0.27 length=0.020142 units=km normamps=456.0
new line.52883661 phases=3 bus1=80515265001998.1.2.3 bus2=80515285001998.1.2.3 r1=0.236 x1=0.27 length=0.079746 units=km normamps=456.0
new line.52883663 phases=3 bus1=80515285001998.1.2.3 bus2=80515305001998.1.2.3 r1=0.236 x1=0.27 length=0.089006 units=km normamps=456.0
new line.52883664 phases=3 bus1=80515305001998.1.2.3 bus2=80515315001998.1.2.3 r1=0.236 x1=0.27 length=0.103697 units=km normamps=456.0
new line.52883665 phases=3 bus1=80515315001998.1.2.3 bus2=80515325001998.1.2.3 r1=0.236 x1=0.27 length=0.060038 units=km normamps=456.0
new line.52883667 phases=3 bus1=80515325001998.1.2.3 bus2=80515345001998.1.2.3 r1=0.236 x1=0.27 length=0.032254 units=km normamps=456.0
new line.52883668 phases=3 bus1=80515345001998.1.2.3 bus2=80515355001998.1.2.3 r1=0.236 x1=0.27 length=0.036415 units=km normamps=456.0
...

! 3. Chaves Seccionadoras MT
new line.SC_5271524 phases=3 bus1=80501135001998.1.2.3 bus2=80501135001998B.1.2.3 switch=y r1=1e-4 x1=1e-4 length=0.001 units=km
new line.SC_5271525 phases=3 bus1=80508235001998.1.2.3 bus2=80508235001998B.1.2.3 switch=y r1=1e-4 x1=1e-4 length=0.001 units=km
new line.SC_5271530 phases=3 bus1=80512935001998.1.2.3 bus2=80512935001998B.1.2.3 switch=y r1=1e-4 x1=1e-4 length=0.001 units=km
new line.SC_5271531 phases=3 bus1=80515755001998.1.2.3 bus2=80515755001998B.1.2.3 switch=y r1=1e-4 x1=1e-4 length=0.001 units=km
new line.SC_5271590 phases=3 bus1=80512185001998.1.2.3 bus2=99464275001998.1.2.3 switch=y r1=1e-4 x1=1e-4 length=0.001 units=km
new line.SC_5271591 phases=3 bus1=80510815001998.1.2.3 bus2=99464325001998.1.2.3 switch=y r1=1e-4 x1=1e-4 length=0.001 units=km
new line.SC_5271610 phases=3 bus1=80513925001998.1.2.3 bus2=80513925001998B.1.2.3 switch=y r1=1e-4 x1=1e-4 length=0.001 units=km
new line.SC_5299705 phases=3 bus1=80515355001998.1.2.3 bus2=80515355001998B.1.2.3 switch=y r1=1e-4 x1=1e-4 length=0.001 units=km
new line.SC_5299706 phases=3 bus1=80515325001998.1.2.3 bus2=80515325001998B.1.2.3 switch=y r1=1e-4 x1=1e-4 length=0.001 units=km
new line.SC_5299710 phases=3 bus1=80515875001998.1.2.3 bus2=80515875001998B.1.2.3 switch=y r1=1e-4 x1=1e-4 length=0.001 units=km
new line.SC_5300032 phases=3 bus1=80515835001998.1.2.3 bus2=80515835001998B.1.2.3 switch=y r1=1e-4 x1=1e-4 length=0.001 units=km
new line.SC_5300037 phases=3 bus1=80515285001998.1.2.3 bus2=80515285001998B.1.2.3 switch=y r1=1e-4 x1=1e-4 length=0.001 units=km
new line.SC_5300045 phases=3 bus1=80515265001998.1.2.3 bus2=80515265001998B.1.2.3 switch=y r1=1e-4 x1=1e-4 length=0.001 units=km
new line.SC_5300154 phases=3 bus1=80515445001998.1.2.3 bus2=80515445001998B.1.2.3 switch=y r1=1e-4 x1=1e-4 length=0.001 units=km
new line.SC_5300155 phases=3 bus1=80515485001998.1.2.3 bus2=80515485001998B.1.2.3 switch=y r1=1e-4 x1=1e-4 length=0.001 units=km
new line.SC_5300157 phases=3 bus1=80515515001998.1.2.3 bus2=80515515001998B.1.2.3 switch=y r1=1e-4 x1=1e-4 length=0.001 units=km
new line.SC_5300227 phases=3 bus1=80515895001998.1.2.3 bus2=80515895001998B.1.2.3 switch=y r1=1e-4 x1=1e-4 length=0.001 units=km
new line.SC_5300237 phases=3 bus1=80515925001998.1.2.3 bus2=80515925001998B.1.2.3 switch=y r1=1e-4 x1=1e-4 length=0.001 units=km
new line.SC_5300338 phases=3 bus1=80512965001998.1.2.3 bus2=80512965001998B.1.2.3 switch=y r1=1e-4 x1=1e-4 length=0.001 units=km
new line.SC_5300339 phases=3 bus1=80513005001998.1.2.3 bus2=80513005001998B.1.2.3 switch=y r1=1e-4 x1=1e-4 length=0.001 units=km
new line.SC_5300341 phases=3 bus1=80513045001998.1.2.3 bus2=80513045001998B.1.2.3 switch=y r1=1e-4 x1=1e-4 length=0.001 units=km
new line.SC_5300370 phases=3 bus1=80514745001998.1.2.3 bus2=80514745001998B.1.2.3 switch=y r1=1e-4 x1=1e-4 length=0.001 units=km
new line.SC_5300371 phases=3 bus1=80514765001998.1.2.3 bus2=80514765001998B.1.2.3 switch=y r1=1e-4 x1=1e-4 length=0.001 units=km
new line.SC_5300372 phases=3 bus1=80515605001998.1.2.3 bus2=80515605001998B.1.2.3 switch=y r1=1e-4 x1=1e-4 length=0.001 units=km
new line.SC_5305582 phases=3 bus1=80511475001998.1.2.3 bus2=99465955001998.1.2.3 switch=y r1=1e-4 x1=1e-4 length=0.001 units=km
new line.SC_5443475 phases=3 bus1=80515535001998.1.2.3 bus2=80515535001998B.1.2.3 switch=y r1=1e-4 x1=1e-4 length=0.001 units=km
new line.SC_5454302 phases=3 bus1=80515405001998.1.2.3 bus2=80515405001998B.1.2.3 switch=y r1=1e-4 x1=1e-4 length=0.001 units=km
new line.SC_5457906 phases=3 bus1=80513125001998.1.2.3 bus2=80513125001998B.1.2.3 switch=y r1=1e-4 x1=1e-4 length=0.001 units=km
new line.SC_5458881 phases=3 bus1=80515035001998.1.2.3 bus2=80515035001998B.1.2.3 switch=y r1=1e-4 x1=1e-4 length=0.001 units=km
new line.SC_5459299 phases=3 bus1=80515625001998.1.2.3 bus2=80515625001998B.1.2.3 switch=y r1=1e-4 x1=1e-4 length=0.001 units=km
new line.SC_5460675 phases=3 bus1=80515175001998.1.2.3 bus2=80515175001998B.1.2.3 switch=y r1=1e-4 x1=1e-4 length=0.001 units=km
new line.SC_5475494 phases=3 bus1=80513185001998.1.2.3 bus2=80513185001998B.1.2.3 switch=y r1=1e-4 x1=1e-4 length=0.001 units=km
new line.SC_5546211 phases=3 bus1=93386435001998.1.2.3 bus2=93386435001998B.1.2.3 switch=y r1=1e-4 x1=1e-4 length=0.001 units=km
new line.SC_5546212 phases=3 bus1=89985535001998.1.2.3 bus2=89985535001998B.1.2.3 switch=y r1=1e-4 x1=1e-4 length=0.001 units=km
open line.SC_5546212 1
new line.SC_5570042 phases=3 bus1=80513075001998.1.2.3 bus2=80513075001998B.1.2.3 switch=y r1=1e-4 x1=1e-4 length=0.001 units=km
new line.SC_5571257 phases=3 bus1=90739085001998.1.2.3 bus2=90739085001998B.1.2.3 switch=y r1=1e-4 x1=1e-4 length=0.001 units=km
new line.SC_5576102 phases=3 bus1=80513965001998.1.2.3 bus2=80513965001998B.1.2.3 switch=y r1=1e-4 x1=1e-4 length=0.001 units=km
new line.SC_5593028 phases=3 bus1=80512955001998.1.2.3 bus2=80512955001998B.1.2.3 switch=y r1=1e-4 x1=1e-4 length=0.001 units=km
new line.SC_5633635 phases=3 bus1=85893175001998.1.2.3 bus2=85893175001998B.1.2.3 switch=y r1=1e-4 x1=1e-4 length=0.001 units=km
new line.SC_5636206 phases=3 bus1=92723795001998.1.2.3 bus2=92723795001998B.1.2.3 switch=y r1=1e-4 x1=1e-4 length=0.001 units=km
open line.SC_5636206 1
new line.SC_5636207 phases=3 bus1=92723755001998.1.2.3 bus2=92723755001998B.1.2.3 switch=y r1=1e-4 x1=1e-4 length=0.001 units=km
new line.SC_5653957 phases=3 bus1=93349615001998.1.2.3 bus2=93349615001998B.1.2.3 switch=y r1=1e-4 x1=1e-4 length=0.001 units=km
open line.SC_5653957 1
new line.SC_5653988 phases=3 bus1=87374075001998.1.2.3 bus2=87374075001998B.1.2.3 switch=y r1=1e-4 x1=1e-4 length=0.001 units=km
open line.SC_5653988 1
new line.SC_5657670 phases=3 bus1=80511345001998.1.2.3 bus2=80511345001998B.1.2.3 switch=y r1=1e-4 x1=1e-4 length=0.001 units=km
new line.SC_5678435 phases=3 bus1=94075475001998.1.2.3 bus2=94075475001998B.1.2.3 switch=y r1=1e-4 x1=1e-4 length=0.001 units=km
open line.SC_5678435 1
new line.SC_5701505 phases=3 bus1=94547055001998.1.2.3 bus2=94547055001998B.1.2.3 switch=y r1=1e-4 x1=1e-4 length=0.001 units=km
new line.SC_5701506 phases=3 bus1=94547085001998.1.2.3 bus2=94547085001998B.1.2.3 switch=y r1=1e-4 x1=1e-4 length=0.001 units=km
open line.SC_5701506 1
new line.SC_5702594 phases=3 bus1=80511395001998.1.2.3 bus2=80511395001998B.1.2.3 switch=y r1=1e-4 x1=1e-4 length=0.001 units=km
new line.SC_5733666 phases=3 bus1=95767435001998.1.2.3 bus2=95767435001998B.1.2.3 switch=y r1=1e-4 x1=1e-4 length=0.001 units=km
open line.SC_5733666 1
new line.SC_5733667 phases=3 bus1=95767405001998.1.2.3 bus2=99466245001998.1.2.3 switch=y r1=1e-4 x1=1e-4 length=0.001 units=km
new line.SC_5756273 phases=3 bus1=96895515001998.1.2.3 bus2=96895515001998B.1.2.3 switch=y r1=1e-4 x1=1e-4 length=0.001 units=km
open line.SC_5756273 1
new line.SC_5756274 phases=3 bus1=96895495001998.1.2.3 bus2=96895495001998B.1.2.3 switch=y r1=1e-4 x1=1e-4 length=0.001 units=km
open line.SC_5756274 1
new line.SC_5774155 phases=3 bus1=85893915001998.1.2.3 bus2=85893915001998B.1.2.3 switch=y r1=1e-4 x1=1e-4 length=0.001 units=km
new line.SC_5819339 phases=3 bus1=80520135001998.1.2.3 bus2=80520135001998B.1.2.3 switch=y r1=1e-4 x1=1e-4 length=0.001 units=km
open line.SC_5819339 1
new line.SC_SA0002841 phases=3 bus1=SA0002841.1.2.3 bus2=93369555001998.1.2.3 switch=y r1=1e-4 x1=1e-4 length=0.001 units=km
new line.SC_SA0002840 phases=3 bus1=SA0002840.1.2.3 bus2=93369555001998.1.2.3 switch=y r1=1e-4 x1=1e-4 length=0.001 units=km
new line.SC_SA0002839 phases=3 bus1=SA0002839.1.2.3 bus2=93369555001998.1.2.3 switch=y r1=1e-4 x1=1e-4 length=0.001 units=km
new line.SC_DA0000434 phases=3 bus1=I888888103615001998.1.2.3 bus2=I888888103615001998B.1.2.3 switch=y r1=1e-4 x1=1e-4 length=0.001 units=km

! 5. Transformadores MT/BT de Distribuicao
new transformer.UNTRMT_5271538 phases=3 windings=2 %r=1.97 xhl=2.9 kva=15.0
~ wdg=1 bus=89230205001998.1.2.3 conn=delta kv=13.8
~ wdg=2 bus=89230205271538.1.2.3.0 conn=wye kv=0.38

new transformer.UNTRMT_5271542 phases=3 windings=2 %r=1.78 xhl=3.01 kva=30.0
~ wdg=1 bus=80516535001998.1.2.3 conn=delta kv=13.8
~ wdg=2 bus=80516535271542.1.2.3.0 conn=wye kv=0.38

new transformer.UNTRMT_5271543 phases=1 windings=3 %r=2.08 xhl=1.39 xht=1.39 xlt=0.97 kva=10.0
~ wdg=1 bus=80516555001998.1 conn=wye kv=7.96 kva=10.0 %r=1.04
~ wdg=2 bus=80516555271543.1.0 conn=wye kv=0.22 kva=10.0 %r=1.04
~ wdg=3 bus=80516555271543.0.2 conn=wye kv=0.22 kva=10.0 %r=1.04

new transformer.UNTRMT_5271544 phases=1 windings=3 %r=2.08 xhl=1.39 xht=1.39 xlt=0.97 kva=10.0
~ wdg=1 bus=80519455001998.1 conn=wye kv=7.96 kva=10.0 %r=1.04
~ wdg=2 bus=80519455271544.1.0 conn=wye kv=0.22 kva=10.0 %r=1.04
~ wdg=3 bus=80519455271544.0.2 conn=wye kv=0.22 kva=10.0 %r=1.04

new transformer.UNTRMT_5271552 phases=3 windings=2 %r=1.55 xhl=3.14 kva=75.0
~ wdg=1 bus=80514675001998.1.2.3 conn=delta kv=13.8
~ wdg=2 bus=80514675271552.1.2.3.0 conn=wye kv=0.38

new transformer.UNTRMT_5271639 phases=3 windings=2 %r=1.55 xhl=3.14 kva=75.0
~ wdg=1 bus=80501485001998.1.2.3 conn=delta kv=13.8
~ wdg=2 bus=80501485271639.1.2.3.0 conn=wye kv=0.38

new transformer.UNTRMT_5271640 phases=3 windings=2 %r=1.46 xhl=3.18 kva=112.0
~ wdg=1 bus=80508375001998.1.2.3 conn=delta kv=13.8
~ wdg=2 bus=80508375271640.1.2.3.0 conn=wye kv=0.38

new transformer.UNTRMT_5271642 phases=3 windings=2 %r=1.46 xhl=3.18 kva=112.0
~ wdg=1 bus=80508555001998.1.2.3 conn=delta kv=13.8
~ wdg=2 bus=80508555271642.1.2.3.0 conn=wye kv=0.38

new transformer.UNTRMT_5271643 phases=3 windings=2 %r=1.46 xhl=3.18 kva=112.0
~ wdg=1 bus=80508965001998.1.2.3 conn=delta kv=13.8
~ wdg=2 bus=80508965271643.1.2.3.0 conn=wye kv=0.38

new transformer.UNTRMT_5271644 phases=3 windings=2 %r=1.55 xhl=3.14 kva=75.0
~ wdg=1 bus=80509035001998.1.2.3 conn=delta kv=13.8
~ wdg=2 bus=80509035271644.1.2.3.0 conn=wye kv=0.38

new transformer.UNTRMT_5271645 phases=3 windings=2 %r=1.68 xhl=3.07 kva=45.0
~ wdg=1 bus=80509075001998.1.2.3 conn=delta kv=13.8
~ wdg=2 bus=80509075271645.1.2.3.0 conn=wye kv=0.38

new transformer.UNTRMT_5271646 phases=3 windings=2 %r=1.46 xhl=3.18 kva=112.0
~ wdg=1 bus=80509865001998.1.2.3 conn=delta kv=13.8
~ wdg=2 bus=80509865271646.1.2.3.0 conn=wye kv=0.38

new transformer.UNTRMT_5271647 phases=3 windings=2 %r=1.55 xhl=3.14 kva=75.0
~ wdg=1 bus=80510705001998.1.2.3 conn=delta kv=13.8
~ wdg=2 bus=80510705271647.1.2.3.0 conn=wye kv=0.38

new transformer.UNTRMT_5271650 phases=3 windings=2 %r=1.55 xhl=3.14 kva=75.0
~ wdg=1 bus=80510285001998.1.2.3 conn=delta kv=13.8
~ wdg=2 bus=80510285271650.1.2.3.0 conn=wye kv=0.38

new transformer.UNTRMT_5271651 phases=3 windings=2 %r=1.55 xhl=3.14 kva=75.0
~ wdg=1 bus=80510335001998.1.2.3 conn=delta kv=13.8
~ wdg=2 bus=80510335271651.1.2.3.0 conn=wye kv=0.38

new transformer.UNTRMT_5271652 phases=3 windings=2 %r=1.55 xhl=3.14 kva=75.0
~ wdg=1 bus=80509395001998.1.2.3 conn=delta kv=13.8
~ wdg=2 bus=80509395271652.1.2.3.0 conn=wye kv=0.38

new transformer.UNTRMT_5271653 phases=3 windings=2 %r=1.68 xhl=3.07 kva=45.0
~ wdg=1 bus=80511465001998.1.2.3 conn=delta kv=13.8
~ wdg=2 bus=80511465271653.1.2.3.0 conn=wye kv=0.38

new transformer.UNTRMT_5271654 phases=3 windings=2 %r=1.68 xhl=3.07 kva=45.0
~ wdg=1 bus=80511625001998.1.2.3 conn=delta kv=13.8
~ wdg=2 bus=80511625271654.1.2.3.0 conn=wye kv=0.38

new transformer.UNTRMT_5271655 phases=3 windings=2 %r=1.78 xhl=3.01 kva=60.0
~ wdg=1 bus=80510985001998.1.2.3 conn=delta kv=13.8
~ wdg=2 bus=80510985271655.1.2.3.0 conn=wye kv=0.38

new transformer.UNTRMT_5271655_2 phases=3 windings=2 %r=1.78 xhl=3.01 kva=60.0
~ wdg=1 bus=80510985001998.1.2.3 conn=delta kv=13.8
~ wdg=2 bus=80510985271655_2.1.2.3.0 conn=wye kv=0.38

new transformer.UNTRMT_5271656 phases=1 windings=3 %r=1.75 xhl=1.79 xht=1.79 xlt=1.25 kva=37.0
~ wdg=1 bus=80519475001998.1 conn=wye kv=7.96 kva=37.0 %r=0.875
~ wdg=2 bus=80519475271656.1.0 conn=wye kv=0.22 kva=37.0 %r=0.875
~ wdg=3 bus=80519475271656.0.2 conn=wye kv=0.22 kva=37.0 %r=0.875

new transformer.UNTRMT_5271661 phases=3 windings=2 %r=1.78 xhl=3.01 kva=30.0
~ wdg=1 bus=80519415001998.1.2.3 conn=delta kv=13.8
~ wdg=2 bus=80519415271661-286.1.2.3.0 conn=wye kv=0.38

new transformer.UNTRMT_5271662 phases=3 windings=2 %r=1.78 xhl=3.01 kva=30.0
~ wdg=1 bus=80519425001998.1.2.3 conn=delta kv=13.8
~ wdg=2 bus=80519425271662.1.2.3.0 conn=wye kv=0.38

new transformer.UNTRMT_5271663 phases=3 windings=2 %r=1.78 xhl=3.01 kva=30.0
~ wdg=1 bus=80515565001998.1.2.3 conn=delta kv=13.8
~ wdg=2 bus=80515565271663.1.2.3.0 conn=wye kv=0.38

new transformer.UNTRMT_5271664 phases=3 windings=2 %r=1.68 xhl=3.07 kva=45.0
~ wdg=1 bus=80515115001998.1.2.3 conn=delta kv=13.8
~ wdg=2 bus=80515115271664.1.2.3.0 conn=wye kv=0.38

new transformer.UNTRMT_5271665 phases=3 windings=2 %r=1.78 xhl=3.01 kva=30.0
~ wdg=1 bus=80519435001998.1.2.3 conn=delta kv=13.8
~ wdg=2 bus=80519435271665-287.1.2.3.0 conn=wye kv=0.38

new transformer.UNTRMT_5271666 phases=3 windings=2 %r=1.78 xhl=3.01 kva=30.0
~ wdg=1 bus=80515425001998.1.2.3 conn=delta kv=13.8
~ wdg=2 bus=80515425271666.1.2.3.0 conn=wye kv=0.38

new transformer.UNTRMT_5271667 phases=3 windings=2 %r=1.55 xhl=3.14 kva=75.0
~ wdg=1 bus=80517075001998.1.2.3 conn=delta kv=13.8
~ wdg=2 bus=80517075271667.1.2.3.0 conn=wye kv=0.38

new transformer.UNTRMT_5271668 phases=3 windings=2 %r=1.55 xhl=3.14 kva=75.0
~ wdg=1 bus=80517205001998.1.2.3 conn=delta kv=13.8
~ wdg=2 bus=80517205271668.1.2.3.0 conn=wye kv=0.38

new transformer.UNTRMT_5271669 phases=3 windings=2 %r=1.39 xhl=3.21 kva=150.0
~ wdg=1 bus=80517315001998.1.2.3 conn=delta kv=13.8
~ wdg=2 bus=80517315271669.1.2.3.0 conn=wye kv=0.38

new transformer.UNTRMT_5271670 phases=3 windings=2 %r=1.55 xhl=3.14 kva=75.0
~ wdg=1 bus=80517425001998.1.2.3 conn=delta kv=13.8
~ wdg=2 bus=80517425271670.1.2.3.0 conn=wye kv=0.38

new transformer.UNTRMT_5271671 phases=3 windings=2 %r=1.55 xhl=3.14 kva=75.0
~ wdg=1 bus=80517595001998.1.2.3 conn=delta kv=13.8
~ wdg=2 bus=80517595271671.1.2.3.0 conn=wye kv=0.38

new transformer.UNTRMT_5271675 phases=3 windings=2 %r=1.46 xhl=3.18 kva=112.0
~ wdg=1 bus=80518755001998.1.2.3 conn=delta kv=13.8
~ wdg=2 bus=80518755271675.1.2.3.0 conn=wye kv=0.38

new transformer.UNTRMT_5271676 phases=3 windings=2 %r=1.46 xhl=3.18 kva=112.0
~ wdg=1 bus=80513835001998.1.2.3 conn=delta kv=13.8
~ wdg=2 bus=80513835271676.1.2.3.0 conn=wye kv=0.38

new transformer.UNTRMT_5271677 phases=3 windings=2 %r=1.39 xhl=3.21 kva=150.0
~ wdg=1 bus=80514295001998.1.2.3 conn=delta kv=13.8
~ wdg=2 bus=80514295271677.1.2.3.0 conn=wye kv=0.38

new transformer.UNTRMT_5271678 phases=3 windings=2 %r=1.46 xhl=3.18 kva=112.0
~ wdg=1 bus=80516205001998.1.2.3 conn=delta kv=13.8
~ wdg=2 bus=80516205271678.1.2.3.0 conn=wye kv=0.38

new transformer.UNTRMT_5271679 phases=3 windings=2 %r=1.55 xhl=3.14 kva=75.0
~ wdg=1 bus=80517735001998.1.2.3 conn=delta kv=13.8
~ wdg=2 bus=80517735271679.1.2.3.0 conn=wye kv=0.38

new transformer.UNTRMT_5271680 phases=3 windings=2 %r=1.55 xhl=3.14 kva=75.0
~ wdg=1 bus=80518005001998.1.2.3 conn=delta kv=13.8
~ wdg=2 bus=80518005271680.1.2.3.0 conn=wye kv=0.38

new transformer.UNTRMT_5271681 phases=3 windings=2 %r=1.46 xhl=3.18 kva=112.0
~ wdg=1 bus=80518205001998.1.2.3 conn=delta kv=13.8
~ wdg=2 bus=80518205271681.1.2.3.0 conn=wye kv=0.38

new transformer.UNTRMT_5307863 phases=3 windings=2 %r=1.25 xhl=4.32 kva=300.0
~ wdg=1 bus=83107145001998.1.2.3 conn=delta kv=13.8
~ wdg=2 bus=83107145307863-365.1.2.3.0 conn=wye kv=0.38

new transformer.UNTRMT_5307889 phases=3 windings=2 %r=1.3 xhl=4.31 kva=225.0
~ wdg=1 bus=83105005001998.1.2.3 conn=delta kv=13.8
~ wdg=2 bus=83105005307889-366.1.2.3.0 conn=wye kv=0.38

new transformer.UNTRMT_5307901 phases=3 windings=2 %r=1.3 xhl=4.31 kva=225.0
~ wdg=1 bus=83103095001998.1.2.3 conn=delta kv=13.8
~ wdg=2 bus=83103095307901-367.1.2.3.0 conn=wye kv=0.38

new transformer.UNTRMT_5307930 phases=3 windings=2 %r=1.3 xhl=4.31 kva=225.0
~ wdg=1 bus=83112615001998.1.2.3 conn=delta kv=13.8
~ wdg=2 bus=83112615307930-368.1.2.3.0 conn=wye kv=0.38

new transformer.UNTRMT_5307934 phases=3 windings=2 %r=1.25 xhl=4.32 kva=300.0
~ wdg=1 bus=83096425001998.1.2.3 conn=delta kv=13.8
~ wdg=2 bus=83096425307934.1.2.3.0 conn=wye kv=0.38

new transformer.UNTRMT_5307948 phases=3 windings=2 %r=1.25 xhl=4.32 kva=300.0
~ wdg=1 bus=83083085001998.1.2.3 conn=delta kv=13.8
~ wdg=2 bus=83083085307948.1.2.3.0 conn=wye kv=0.38

new transformer.UNTRMT_5307952 phases=3 windings=2 %r=1.25 xhl=4.32 kva=300.0
~ wdg=1 bus=83071295001998.1.2.3 conn=delta kv=13.8
~ wdg=2 bus=83071295307952.1.2.3.0 conn=wye kv=0.38

new transformer.UNTRMT_5307956 phases=3 windings=2 %r=1.25 xhl=4.32 kva=300.0
~ wdg=1 bus=83081655001998.1.2.3 conn=delta kv=13.8
~ wdg=2 bus=83081655307956-369.1.2.3.0 conn=wye kv=0.38

new transformer.UNTRMT_5307967 phases=3 windings=2 %r=1.15 xhl=5.89 kva=500.0
~ wdg=1 bus=83075485001998.1.2.3 conn=delta kv=13.8
~ wdg=2 bus=83075485307967.1.2.3.0 conn=wye kv=0.38

new transformer.UNTRMT_5307979 phases=3 windings=2 %r=1.3 xhl=4.31 kva=225.0
~ wdg=1 bus=83067525001998.1.2.3 conn=delta kv=13.8
~ wdg=2 bus=83067525307979-370.1.2.3.0 conn=wye kv=0.38

new transformer.UNTRMT_5307982 phases=3 windings=2 %r=1.3 xhl=4.31 kva=225.0
~ wdg=1 bus=83066805001998.1.2.3 conn=delta kv=13.8
~ wdg=2 bus=83066805307982-371.1.2.3.0 conn=wye kv=0.38

new transformer.UNTRMT_5307986 phases=3 windings=2 %r=1.15 xhl=5.89 kva=500.0
~ wdg=1 bus=83068765001998.1.2.3 conn=delta kv=13.8
~ wdg=2 bus=83068765307986.1.2.3.0 conn=wye kv=0.38

new transformer.UNTRMT_5307990 phases=3 windings=2 %r=1.25 xhl=4.32 kva=300.0
~ wdg=1 bus=83108195001998.1.2.3 conn=delta kv=13.8
~ wdg=2 bus=83108195307990.1.2.3.0 conn=wye kv=0.38

new transformer.UNTRMT_5307993 phases=3 windings=2 %r=1.3 xhl=4.31 kva=225.0
~ wdg=1 bus=83110295001998.1.2.3 conn=delta kv=13.8
~ wdg=2 bus=83110295307993-372.1.2.3.0 conn=wye kv=0.38

new transformer.UNTRMT_5308004 phases=3 windings=2 %r=1.3 xhl=4.31 kva=225.0
~ wdg=1 bus=83111105001998.1.2.3 conn=delta kv=13.8
~ wdg=2 bus=83111105308004-373.1.2.3.0 conn=wye kv=0.38

new transformer.UNTRMT_5308007 phases=3 windings=2 %r=1.25 xhl=4.32 kva=300.0
~ wdg=1 bus=83115105001998.1.2.3 conn=delta kv=13.8
~ wdg=2 bus=83115105308007.1.2.3.0 conn=wye kv=0.38

new transformer.UNTRMT_5311444 phases=3 windings=2 %r=1.78 xhl=3.01 kva=30.0
~ wdg=1 bus=80514965001998.1.2.3 conn=delta kv=13.8
~ wdg=2 bus=80514965311444.1.2.3.0 conn=wye kv=0.38

new transformer.UNTRMT_5332073 phases=3 windings=2 %r=1.3 xhl=4.31 kva=225.0
~ wdg=1 bus=83103105001998.1.2.3 conn=delta kv=13.8
~ wdg=2 bus=83103105332073.1.2.3.0 conn=wye kv=0.38

new transformer.UNTRMT_5343291 phases=3 windings=2 %r=1.55 xhl=3.14 kva=75.0
~ wdg=1 bus=85893675001998.1.2.3 conn=delta kv=13.8
~ wdg=2 bus=85893675343291.1.2.3.0 conn=wye kv=0.38

new transformer.UNTRMT_5343292 phases=3 windings=2 %r=1.68 xhl=3.07 kva=45.0
~ wdg=1 bus=85893145001998.1.2.3 conn=delta kv=13.8
~ wdg=2 bus=85893145343292.1.2.3.0 conn=wye kv=0.38

new transformer.UNTRMT_5343293 phases=3 windings=2 %r=1.55 xhl=3.14 kva=75.0
~ wdg=1 bus=85893305001998.1.2.3 conn=delta kv=13.8
~ wdg=2 bus=85893305343293.1.2.3.0 conn=wye kv=0.38

new transformer.UNTRMT_5343294 phases=3 windings=2 %r=1.55 xhl=3.14 kva=75.0
~ wdg=1 bus=85894295001998.1.2.3 conn=delta kv=13.8
~ wdg=2 bus=85894295343294.1.2.3.0 conn=wye kv=0.38

new transformer.UNTRMT_5457045 phases=3 windings=2 %r=1.25 xhl=4.32 kva=300.0
~ wdg=1 bus=83075475001998.1.2.3 conn=delta kv=13.8
~ wdg=2 bus=83075475457045.1.2.3.0 conn=wye kv=0.38

new transformer.UNTRMT_5458987 phases=3 windings=2 %r=1.15 xhl=5.89 kva=500.0
~ wdg=1 bus=87417075001998.1.2.3 conn=delta kv=13.8
~ wdg=2 bus=87417075458987.1.2.3.0 conn=wye kv=0.38

new transformer.UNTRMT_5459149 phases=3 windings=2 %r=1.15 xhl=5.89 kva=500.0
~ wdg=1 bus=87422605001998.1.2.3 conn=delta kv=13.8
~ wdg=2 bus=87422605459149-428.1.2.3.0 conn=wye kv=0.38

new transformer.UNTRMT_5459275 phases=3 windings=2 %r=1.25 xhl=4.32 kva=300.0
~ wdg=1 bus=87423085001998.1.2.3 conn=delta kv=13.8
~ wdg=2 bus=87423085459275.1.2.3.0 conn=wye kv=0.38

new transformer.UNTRMT_5459303 phases=3 windings=2 %r=1.25 xhl=4.32 kva=300.0
~ wdg=1 bus=87425595001998.1.2.3 conn=delta kv=13.8
~ wdg=2 bus=87425595459303.1.2.3.0 conn=wye kv=0.38

new transformer.UNTRMT_5459372 phases=3 windings=2 %r=1.15 xhl=5.89 kva=500.0
~ wdg=1 bus=87428715001998.1.2.3 conn=delta kv=13.8
~ wdg=2 bus=87428715459372-429.1.2.3.0 conn=wye kv=0.38

new transformer.UNTRMT_5459664 phases=3 windings=2 %r=1.25 xhl=4.32 kva=300.0
~ wdg=1 bus=87432215001998.1.2.3 conn=delta kv=13.8
~ wdg=2 bus=87432215459664.1.2.3.0 conn=wye kv=0.38

new transformer.UNTRMT_5460386 phases=3 windings=2 %r=1.25 xhl=4.32 kva=300.0
~ wdg=1 bus=87432275001998.1.2.3 conn=delta kv=13.8
~ wdg=2 bus=87432275460386-430.1.2.3.0 conn=wye kv=0.38

new transformer.UNTRMT_5460540 phases=3 windings=2 %r=1.3 xhl=4.31 kva=225.0
~ wdg=1 bus=87459785001998.1.2.3 conn=delta kv=13.8
~ wdg=2 bus=87459785460540-431.1.2.3.0 conn=wye kv=0.38

new transformer.UNTRMT_5483321 phases=3 windings=2 %r=1.25 xhl=4.32 kva=300.0
~ wdg=1 bus=83097925001998.1.2.3 conn=delta kv=13.8
~ wdg=2 bus=83097925483321.1.2.3.0 conn=wye kv=0.38

new transformer.UNTRMT_5483693 phases=3 windings=2 %r=1.25 xhl=4.32 kva=300.0
~ wdg=1 bus=83097935001998.1.2.3 conn=delta kv=13.8
~ wdg=2 bus=83097935483693.1.2.3.0 conn=wye kv=0.38

new transformer.UNTRMT_5537347 phases=3 windings=2 %r=1.25 xhl=4.32 kva=300.0
~ wdg=1 bus=89784195001998.1.2.3 conn=delta kv=13.8
~ wdg=2 bus=89784195537347.1.2.3.0 conn=wye kv=0.38

new transformer.UNTRMT_5541364 phases=3 windings=2 %r=1.78 xhl=3.01 kva=45.0
~ wdg=1 bus=80515715001998.1.2.3 conn=delta kv=13.8
~ wdg=2 bus=80515715541364.1.2.3.0 conn=wye kv=0.38

new transformer.UNTRMT_5570043 phases=3 windings=2 %r=1.46 xhl=3.18 kva=112.0
~ wdg=1 bus=90704865001998.1.2.3 conn=delta kv=13.8
~ wdg=2 bus=90704865570043.1.2.3.0 conn=wye kv=0.38

new transformer.UNTRMT_5582812 phases=3 windings=2 %r=1.39 xhl=3.21 kva=150.0
~ wdg=1 bus=83075465001998.1.2.3 conn=delta kv=13.8
~ wdg=2 bus=83075465582812.1.2.3.0 conn=wye kv=0.38

new transformer.UNTRMT_5612289 phases=3 windings=2 %r=1.25 xhl=4.32 kva=300.0
~ wdg=1 bus=83149735001998.1.2.3 conn=delta kv=13.8
~ wdg=2 bus=83149735612289-774.1.2.3.0 conn=wye kv=0.38

new transformer.UNTRMT_5612426 phases=3 windings=2 %r=1.25 xhl=4.32 kva=300.0
~ wdg=1 bus=83118595001998.1.2.3 conn=delta kv=13.8
~ wdg=2 bus=83118595612426-776.1.2.3.0 conn=wye kv=0.38

new transformer.UNTRMT_5612433 phases=3 windings=2 %r=1.25 xhl=4.32 kva=300.0
~ wdg=1 bus=83111225001998.1.2.3 conn=delta kv=13.8
~ wdg=2 bus=83111225612433-777.1.2.3.0 conn=wye kv=0.38

new transformer.UNTRMT_5636881 phases=1 windings=3 %r=2.08 xhl=1.39 xht=1.39 xlt=0.97 kva=10.0
~ wdg=1 bus=92723785001998.1 conn=wye kv=7.96 kva=10.0 %r=1.04
~ wdg=2 bus=92723785636881.1.0 conn=wye kv=0.22 kva=10.0 %r=1.04
~ wdg=3 bus=92723785636881.0.2 conn=wye kv=0.22 kva=10.0 %r=1.04

new transformer.UNTRMT_5693869 phases=3 windings=2 %r=1.25 xhl=4.32 kva=300.0
~ wdg=1 bus=83113905001998.1.2.3 conn=delta kv=13.8
~ wdg=2 bus=83113905693869.1.2.3.0 conn=wye kv=0.38

new transformer.UNTRMT_5736523 phases=3 windings=2 %r=1.25 xhl=4.32 kva=300.0
~ wdg=1 bus=95880845001998.1.2.3 conn=delta kv=13.8
~ wdg=2 bus=95880845736523.1.2.3.0 conn=wye kv=0.38

! 6. Linhas de Baixa Tensao (BT)
new line.52884501 phases=3 bus1=80501545271639.1.2.3.0 bus2=80501535271639.1.2.3.0 r1=0.975 x1=0.47 length=0.021909 units=km normamps=152.0
new line.52884505 phases=3 bus1=80501495271639.1.2.3.0 bus2=80501505271639.1.2.3.0 r1=0.613 x1=0.45 length=0.025582 units=km normamps=203.0
new line.52884540 phases=3 bus1=80501375271639.1.2.3.0 bus2=80501385271639.1.2.3.0 r1=0.975 x1=0.47 length=0.04354 units=km normamps=152.0
new line.52884548 phases=3 bus1=80501235271639.1.2.3.0 bus2=80501295271639.1.2.3.0 r1=0.975 x1=0.47 length=0.035906 units=km normamps=152.0
new line.52884558 phases=3 bus1=80501225271639.1.2.3.0 bus2=80501215271639.1.2.3.0 r1=0.975 x1=0.47 length=0.023536 units=km normamps=152.0
new line.52884594 phases=3 bus1=80508455271642.1.2.3.0 bus2=80508445271642.1.2.3.0 r1=0.975 x1=0.47 length=0.016771 units=km normamps=152.0
new line.52884595 phases=3 bus1=80508445271642.1.2.3.0 bus2=80508465271642.1.2.3.0 r1=0.975 x1=0.47 length=0.042813 units=km normamps=152.0
new line.52884596 phases=3 bus1=80508465271642.1.2.3.0 bus2=80508475271642.1.2.3.0 r1=0.975 x1=0.47 length=0.032002 units=km normamps=152.0
new line.52884599 phases=3 bus1=80508505271642.1.2.3.0 bus2=80508495271642.1.2.3.0 r1=0.975 x1=0.47 length=0.035781 units=km normamps=152.0
new line.52884603 phases=3 bus1=80508535271642.1.2.3.0 bus2=80508555271642.1.2.3.0 r1=0.613 x1=0.45 length=0.03262 units=km normamps=203.0
new line.52884610 phases=3 bus1=80508625271642.1.2.3.0 bus2=80508615271642.1.2.3.0 r1=0.975 x1=0.47 length=0.032336 units=km normamps=152.0
new line.52884612 phases=3 bus1=80508435271642.1.2.3.0 bus2=80508635271642.1.2.3.0 r1=0.975 x1=0.47 length=0.019669 units=km normamps=152.0
new line.52884616 phases=3 bus1=80508675271642.1.2.3.0 bus2=80508685271642.1.2.3.0 r1=0.975 x1=0.47 length=0.036022 units=km normamps=152.0
new line.52884618 phases=3 bus1=80508665271642.1.2.3.0 bus2=80508675271642.1.2.3.0 r1=0.975 x1=0.47 length=0.01777 units=km normamps=152.0
new line.52884620 phases=3 bus1=80508695271642.1.2.3.0 bus2=80508705271642.1.2.3.0 r1=0.975 x1=0.47 length=0.040291 units=km normamps=152.0
new line.52884625 phases=3 bus1=80508715271642.1.2.3.0 bus2=80508755271642.1.2.3.0 r1=0.975 x1=0.47 length=0.027524 units=km normamps=152.0
new line.52884629 phases=3 bus1=80508435271642.1.2.3.0 bus2=80508445271642.1.2.3.0 r1=0.975 x1=0.47 length=0.035251 units=km normamps=152.0
new line.52884631 phases=1 bus1=80509375271642.1.0 bus2=80508435271642.1.0 r1=0.975 x1=0.47 length=0.058599 units=km normamps=152.0
new line.52884634 phases=3 bus1=80510855271642.1.2.3.0 bus2=80510845271642.1.2.3.0 r1=0.975 x1=0.47 length=0.03994 units=km normamps=152.0
new line.52884639 phases=3 bus1=99464405271642.1.2.3.0 bus2=80512195271642.1.2.3.0 r1=0.975 x1=0.47 length=0.039709 units=km normamps=152.0
new line.52884645 phases=3 bus1=80508535271642.1.2.3.0 bus2=80508545271642.1.2.3.0 r1=0.613 x1=0.45 length=0.012271 units=km normamps=203.0
new line.52884654 phases=3 bus1=80508825271643.1.2.3.0 bus2=80508835271643.1.2.3.0 r1=0.975 x1=0.47 length=0.042264 units=km normamps=152.0
new line.52884672 phases=3 bus1=80509015271644.1.2.3.0 bus2=80509025271644.1.2.3.0 r1=0.975 x1=0.47 length=0.023533 units=km normamps=152.0
new line.52884686 phases=3 bus1=80509775271644.1.2.3.0 bus2=80509785271644.1.2.3.0 r1=0.975 x1=0.47 length=0.037221 units=km normamps=152.0
new line.52884687 phases=3 bus1=80509755271644.1.2.3.0 bus2=80509785271644.1.2.3.0 r1=0.975 x1=0.47 length=0.031749 units=km normamps=152.0
new line.52884690 phases=3 bus1=80508915271645.1.2.3.0 bus2=80508895271645.1.2.3.0 r1=0.975 x1=0.47 length=0.033085 units=km normamps=152.0
new line.52884714 phases=3 bus1=80510625271646.1.2.3.0 bus2=80509295271646.1.2.3.0 r1=0.975 x1=0.47 length=0.02392 units=km normamps=152.0
new line.52884715 phases=3 bus1=80509595271647.1.2.3.0 bus2=80509605271647.1.2.3.0 r1=0.975 x1=0.47 length=0.023273 units=km normamps=152.0
new line.52884716 phases=3 bus1=80509605271647.1.2.3.0 bus2=80509615271647.1.2.3.0 r1=0.975 x1=0.47 length=0.036612 units=km normamps=152.0
new line.52884722 phases=1 bus1=80509665271647.1.0 bus2=80509675271647.1.0 r1=0.975 x1=0.47 length=0.030475 units=km normamps=152.0
new line.52884724 phases=3 bus1=80510505271647.1.2.3.0 bus2=80510495271647.1.2.3.0 r1=0.613 x1=0.45 length=0.026023 units=km normamps=203.0
new line.52884725 phases=3 bus1=80510505271647.1.2.3.0 bus2=80509685271647.1.2.3.0 r1=0.975 x1=0.47 length=0.035482 units=km normamps=152.0
new line.52884737 phases=3 bus1=80510745271647.1.2.3.0 bus2=80509595271647.1.2.3.0 r1=0.975 x1=0.47 length=0.041966 units=km normamps=152.0
new line.52884781 phases=1 bus1=80510245271650.1.0 bus2=80510235271650.1.0 r1=0.975 x1=0.47 length=0.03131 units=km normamps=152.0
new line.52884783 phases=3 bus1=80510255271650.1.2.3.0 bus2=80510265271650.1.2.3.0 r1=0.975 x1=0.47 length=0.03543 units=km normamps=152.0
new line.52884784 phases=3 bus1=80510265271650.1.2.3.0 bus2=80510275271650.1.2.3.0 r1=0.613 x1=0.45 length=0.036311 units=km normamps=203.0
new line.52884786 phases=3 bus1=80510285271650.1.2.3.0 bus2=80510295271650.1.2.3.0 r1=0.613 x1=0.45 length=0.023519 units=km normamps=203.0
new line.52884801 phases=3 bus1=80509595271645.1.2.3.0 bus2=80509585271645.1.2.3.0 r1=0.975 x1=0.47 length=0.020717 units=km normamps=152.0
new line.52884805 phases=3 bus1=80509335271645.1.2.3.0 bus2=80509345271645.1.2.3.0 r1=0.975 x1=0.47 length=0.008788 units=km normamps=152.0
new line.52884822 phases=3 bus1=80510845271645.1.2.3.0 bus2=80510835271645.1.2.3.0 r1=0.975 x1=0.47 length=0.032887 units=km normamps=152.0
new line.52884840 phases=3 bus1=80509995271646.1.2.3.0 bus2=80510005271646.1.2.3.0 r1=0.975 x1=0.47 length=0.036262 units=km normamps=152.0
new line.52884844 phases=3 bus1=80510015271646.1.2.3.0 bus2=80510045271646.1.2.3.0 r1=0.975 x1=0.47 length=0.043967 units=km normamps=152.0
new line.52884848 phases=3 bus1=80510065271646.1.2.3.0 bus2=80510075271646.1.2.3.0 r1=0.975 x1=0.47 length=0.014316 units=km normamps=152.0
new line.52884857 phases=3 bus1=80514015271670.1.2.3.0 bus2=80514005271670.1.2.3.0 r1=0.975 x1=0.47 length=0.011432 units=km normamps=152.0
new line.52884861 phases=3 bus1=80514055271670.1.2.3.0 bus2=80514045271670.1.2.3.0 r1=0.975 x1=0.47 length=0.015485 units=km normamps=152.0
new line.52884864 phases=3 bus1=80514075271670.1.2.3.0 bus2=80514095271670.1.2.3.0 r1=0.975 x1=0.47 length=0.012313 units=km normamps=152.0
new line.52884868 phases=3 bus1=80514155271670.1.2.3.0 bus2=80514135271670.1.2.3.0 r1=0.613 x1=0.45 length=0.02613 units=km normamps=203.0
new line.52884878 phases=3 bus1=80517465271670.1.2.3.0 bus2=80517475271670.1.2.3.0 r1=0.975 x1=0.47 length=0.020884 units=km normamps=152.0
new line.52884886 phases=3 bus1=80517655271670.1.2.3.0 bus2=80517665271670.1.2.3.0 r1=0.975 x1=0.47 length=0.040291 units=km normamps=152.0
new line.52884896 phases=3 bus1=80517535271671.1.2.3.0 bus2=80517555271671.1.2.3.0 r1=0.975 x1=0.47 length=0.018148 units=km normamps=152.0
new line.52884903 phases=3 bus1=80509275271647.1.2.3.0 bus2=80509285271647.1.2.3.0 r1=0.975 x1=0.47 length=0.035789 units=km normamps=152.0
new line.52884905 phases=3 bus1=80509295271647.1.2.3.0 bus2=80509235271647.1.2.3.0 r1=0.975 x1=0.47 length=0.026657 units=km normamps=152.0
new line.52884924 phases=3 bus1=80510115271650.1.2.3.0 bus2=80510105271650.1.2.3.0 r1=0.975 x1=0.47 length=0.030795 units=km normamps=152.0
new line.52884952 phases=3 bus1=80510455271651.1.2.3.0 bus2=80510465271651.1.2.3.0 r1=0.975 x1=0.47 length=0.027073 units=km normamps=152.0
new line.52884959 phases=3 bus1=80509405271652.1.2.3.0 bus2=80509435271652.1.2.3.0 r1=0.613 x1=0.45 length=0.047875 units=km normamps=203.0
new line.52884972 phases=3 bus1=80511275271652.1.2.3.0 bus2=80511285271652.1.2.3.0 r1=0.975 x1=0.47 length=0.037179 units=km normamps=152.0
new line.52884973 phases=3 bus1=80511285271652.1.2.3.0 bus2=80510515271652.1.2.3.0 r1=0.975 x1=0.47 length=0.029714 units=km normamps=152.0
new line.52884983 phases=3 bus1=99465965271653.1.2.3.0 bus2=80511385271653.1.2.3.0 r1=0.975 x1=0.47 length=0.047253 units=km normamps=152.0
new line.52884989 phases=3 bus1=80511465271653.1.2.3.0 bus2=80511455271653.1.2.3.0 r1=0.613 x1=0.45 length=0.035808 units=km normamps=203.0
new line.52885009 phases=3 bus1=80511555271653.1.2.3.0 bus2=80511545271653.1.2.3.0 r1=0.975 x1=0.47 length=0.040336 units=km normamps=152.0
new line.52885010 phases=3 bus1=80511565271653.1.2.3.0 bus2=80511555271653.1.2.3.0 r1=0.975 x1=0.47 length=0.034037 units=km normamps=152.0
new line.52885012 phases=3 bus1=80511585271653.1.2.3.0 bus2=80511575271653.1.2.3.0 r1=0.975 x1=0.47 length=0.032707 units=km normamps=152.0
new line.52885088 phases=3 bus1=80515115271664.1.2.3.0 bus2=80515105271664.1.2.3.0 r1=0.991 x1=0.1 length=0.037785 units=km normamps=100.0
new line.52885133 phases=3 bus1=80516935271668.1.2.3.0 bus2=80516945271668.1.2.3.0 r1=0.975 x1=0.47 length=0.036944 units=km normamps=152.0
...